Circuit: * C:\Users\Prima Nafisman\Documents\Tugas Kuliah\Elday\Prima Nafisman_493817_UAS Elday\Task 1\Prima Nafisman_493817_Task_1.asc

Warning: Multiple definitions of model "2scr375p" Type: BJT
Warning: Multiple definitions of model "bc857b" Type: BJT
Warning: Multiple definitions of model "bc847c" Type: BJT
Warning: Multiple definitions of model "bc847b" Type: BJT
Direct Newton iteration for .op point succeeded.

Date: Wed Dec 24 21:00:18 2025
Total elapsed time: 0.223 seconds.

tnom = 27
temp = 27
method = modified trap
totiter = 4483
traniter = 4446
tranpoints = 1926
accept = 1677
rejected = 249
matrix size = 27
fillins = 4
solver = Normal
Avg thread counts: 1.6/2.4/2.4/1.6
Matrix Compiler1: 1.61 KB object code size  1.1/0.6/[0.3]
Matrix Compiler2: off  [0.5]/0.8/0.6

