Circuit: * C:\Users\Prima Nafisman\Documents\Tugas Kuliah\Elday\Prima Nafisman_493817_UAS Elday\Task 1\Prima Nafisman_493817_Task_1.asc

Warning: Multiple definitions of model "2scr375p" Type: BJT
Warning: Multiple definitions of model "bc857b" Type: BJT
Warning: Multiple definitions of model "bc847c" Type: BJT
Warning: Multiple definitions of model "bc847b" Type: BJT
Direct Newton iteration for .op point succeeded.

Date: Sun Dec  7 20:08:37 2025
Total elapsed time: 0.303 seconds.

tnom = 27
temp = 27
method = modified trap
totiter = 3739
traniter = 3705
tranpoints = 1613
accept = 1437
rejected = 176
matrix size = 27
fillins = 4
solver = Normal
Avg thread counts: 1.7/2.7/2.7/1.7
Matrix Compiler1: 1.61 KB object code size  0.5/0.5/[0.3]
Matrix Compiler2: off  [0.4]/0.7/0.8

